!-Generator Python generate_model.py
!-Option SortedOrder

Version,
    23.2;                    !- Version Identifier

SimulationControl,
    No,                      !- Do Zone Sizing Calculation
    No,                      !- Do System Sizing Calculation
    No,                      !- Do Plant Sizing Calculation
    No,                      !- Run Simulation for Sizing Periods
    Yes,                     !- Run Simulation for Weather File Run Periods
    No,                      !- Do HVAC Sizing Simulation for Sizing Periods
    ;                        !- Maximum Number of HVAC Sizing Simulation Passes

Building,
    Archetype_Office,     !- Name
    0,                       !- North Axis {deg}
    City,                    !- Terrain
    0.001,                   !- Loads Convergence Tolerance Value {W}
    0.01,                    !- Temperature Convergence Tolerance Value {deltaC}
    FullExterior,            !- Solar Distribution
    100,                     !- Maximum Number of Warmup Days
    6;                       !- Minimum Number of Warmup Days

Timestep,
    6;          !- Number of Timesteps per Hour

RunPeriod,
    AnnualRun,               !- Name
    1,   !- Begin Month
    1,     !- Begin Day of Month
    2024,    !- Begin Year
    3,     !- End Month
    1,       !- End Day of Month
    2024,      !- End Year
    Monday,                  !- Day of Week for Start Day
    No,                      !- Use Weather File Holidays and Special Days
    No,                      !- Use Weather File Daylight Saving Period
    No,                      !- Apply Weekend Holiday Rule
    Yes,                     !- Use Weather File Rain Indicators
    Yes,                     !- Use Weather File Snow Indicators
    No,                      !- Treat Weather as Actual
    Hour24;                  !- First Hour Interpolation Starting Values

SurfaceConvectionAlgorithm:Inside,
    TARP;                    !- Algorithm

SurfaceConvectionAlgorithm:Outside,
    DOE-2;                   !- Algorithm

HeatBalanceAlgorithm,
    ConductionTransferFunction,  !- Algorithm
    200;                     !- Surface Temperature Upper Limit {C}

ScheduleTypeLimits,
    Fractional,              !- Name
    0,                       !- Lower Limit Value
    1,                       !- Upper Limit Value
    Continuous,              !- Numeric Type
    dimensionless;           !- Unit Type

ScheduleTypeLimits,
    AnyNumber,               !- Name
    ,                        !- Lower Limit Value
    ,                        !- Upper Limit Value
    Continuous,              !- Numeric Type
    Dimensionless;           !- Unit Type

ScheduleTypeLimits,
    Temperature,             !- Name
    -273.15,                 !- Lower Limit Value
    ,                        !- Upper Limit Value
    Continuous,              !- Numeric Type
    Temperature;             !- Unit Type

! --- Global Geometry Rules ---
GlobalGeometryRules,
    UpperLeftCorner,         !- Starting Vertex Position
    Counterclockwise,        !- Vertex Entry Direction
    Relative;                !- Coordinate System

! --- Schedules ---

Schedule:Compact,
    Always On,               !- Name
    Fractional,              !- Schedule Type Limits Name
    Through: 12/31,          !- Field 1
    For: AllDays,            !- Field 2
    Until: 24:00, 1;         !- Field 3-4

Schedule:Compact,
    Always Off,              !- Name
    Fractional,              !- Schedule Type Limits Name
    Through: 12/31,          !- Field 1
    For: AllDays,            !- Field 2
    Until: 24:00, 0;         !- Field 3-4

Schedule:Compact,
    HVACTemplate-Always 4,   !- Name
    AnyNumber,               !- Schedule Type Limits Name
    Through: 12/31,          !- Field 1
    For: AllDays,            !- Field 2
    Until: 24:00, 4;         !- Field 3-4

Schedule:Compact,
    Heating Setpoint Schedule,  !- Name
    Temperature,             !- Schedule Type Limits Name
    Through: 12/31,          !- Field 1
    For: Weekdays,           !- Field 2
    Until: 7:00, 18,  !- Field 3-4
    Until: 20:00, 23,  !- Field 5-6
    Until: 24:00, 18,  !- Field 7-8
    For: AllOtherDays,       !- Field 9
    Until: 24:00, 18;  !- Field 10-11

Schedule:Compact,
    Cooling Setpoint Schedule,  !- Name
    Temperature,             !- Schedule Type Limits Name
    Through: 12/31,          !- Field 1
    For: Weekdays,           !- Field 2
    Until: 7:00, 30,  !- Field 3-4
    Until: 20:00, 25,  !- Field 5-6
    Until: 24:00, 30,  !- Field 7-8
    For: AllOtherDays,       !- Field 9
    Until: 24:00, 30;  !- Field 10-11

Schedule:Compact,
    Office Occupancy,        !- Name
    Fractional,              !- Schedule Type Limits Name
    Through: 12/31,          !- Field 1
    For: Weekdays,           !- Field 2
    Until: 7:00, 0,          !- Field 3-4
    Until: 8:00, 0.1,        !- Field 5-6
    Until: 9:00, 0.9,        !- Field 7-8
    Until: 17:00, 1.0,       !- Field 9-10
    Until: 18:00, 0.8,       !- Field 11-12
    Until: 20:00, 0.3,       !- Field 13-14
    Until: 21:00, 0.1,       !- Field 15-16
    Until: 24:00, 0,         !- Field 17-18
    For: AllOtherDays,       !- Field 19
    Until: 24:00, 0;         !- Field 20-21


! ================================================================
! ZONE: Room_211
! ================================================================

Zone,
    Room_211,         !- Name
    0,                       !- Direction of Relative North {deg}
    0,     !- X Origin {m}
    0,     !- Y Origin {m}
    0,                       !- Z Origin {m}
    1,                       !- Type
    1,                       !- Multiplier
    autocalculate,           !- Ceiling Height {m}
    83.1501924397538;       !- Volume {m3}

! --- Envelope surfaces ---

BuildingSurface:Detailed,
    Room_211_Floor,   !- Name
    Floor,                   !- Surface Type
    Int_Floor,  !- Construction Name
    Room_211,         !- Zone Name
    ,                        !- Space Name
    Ground,                  !- Outside Boundary Condition
    ,                        !- Outside Boundary Condition Object
    NoSun,                   !- Sun Exposure
    NoWind,                  !- Wind Exposure
    autocalculate,           !- View Factor to Ground
    4,                       !- Number of Vertices
    0, 0, 0,
    0, 5.019664133390461, 0,
    5.019664133390461, 5.019664133390461, 0,
    5.019664133390461, 0, 0;

BuildingSurface:Detailed,
    Room_211_Ceiling, !- Name
    Ceiling,                 !- Surface Type
    Ext_Roof,  !- Construction Name
    Room_211,         !- Zone Name
    ,                        !- Space Name
    Outdoors,                !- Outside Boundary Condition
    ,                        !- Outside Boundary Condition Object
    SunExposed,              !- Sun Exposure
    WindExposed,             !- Wind Exposure
    autocalculate,           !- View Factor to Ground
    4,                       !- Number of Vertices
    5.019664133390461, 0, 3.3,
    5.019664133390461, 5.019664133390461, 3.3,
    0, 5.019664133390461, 3.3,
    0, 0, 3.3;

BuildingSurface:Detailed,
    Room_211_Wall_South,  !- Name
    Wall,                    !- Surface Type
    Ext_Wall, !- Construction Name
    Room_211,         !- Zone Name
    ,                        !- Space Name
    Outdoors,                !- Outside Boundary Condition
    ,                        !- Outside Boundary Condition Object
    SunExposed,              !- Sun Exposure
    WindExposed,             !- Wind Exposure
    autocalculate,           !- View Factor to Ground
    4,                       !- Number of Vertices
    0, 0, 3.3,
    0, 0, 0,
    5.019664133390461, 0, 0,
    5.019664133390461, 0, 3.3;

BuildingSurface:Detailed,
    Room_211_Wall_North,  !- Name
    Wall,                    !- Surface Type
    Ext_Wall, !- Construction Name
    Room_211,         !- Zone Name
    ,                        !- Space Name
    Outdoors,                !- Outside Boundary Condition
    ,                        !- Outside Boundary Condition Object
    SunExposed,              !- Sun Exposure
    WindExposed,             !- Wind Exposure
    autocalculate,           !- View Factor to Ground
    4,                       !- Number of Vertices
    5.019664133390461, 5.019664133390461, 3.3,
    5.019664133390461, 5.019664133390461, 0,
    0, 5.019664133390461, 0,
    0, 5.019664133390461, 3.3;

BuildingSurface:Detailed,
    Room_211_Wall_East,  !- Name
    Wall,                    !- Surface Type
    Ext_Wall, !- Construction Name
    Room_211,         !- Zone Name
    ,                        !- Space Name
    Outdoors,                !- Outside Boundary Condition
    ,                        !- Outside Boundary Condition Object
    SunExposed,              !- Sun Exposure
    WindExposed,             !- Wind Exposure
    autocalculate,           !- View Factor to Ground
    4,                       !- Number of Vertices
    5.019664133390461, 0, 3.3,
    5.019664133390461, 0, 0,
    5.019664133390461, 5.019664133390461, 0,
    5.019664133390461, 5.019664133390461, 3.3;

BuildingSurface:Detailed,
    Room_211_Wall_West,  !- Name
    Wall,                    !- Surface Type
    Ext_Wall, !- Construction Name
    Room_211,         !- Zone Name
    ,                        !- Space Name
    Outdoors,                !- Outside Boundary Condition
    ,                        !- Outside Boundary Condition Object
    SunExposed,              !- Sun Exposure
    WindExposed,             !- Wind Exposure
    autocalculate,           !- View Factor to Ground
    4,                       !- Number of Vertices
    0, 5.019664133390461, 3.3,
    0, 5.019664133390461, 0,
    0, 0, 0,
    0, 0, 3.3;

FenestrationSurface:Detailed,
    Room_211_Window_South,  !- Name
    Window,                  !- Surface Type
    Simple_Window_Const,  !- Construction Name
    Room_211_Wall_South,  !- Building Surface Name
    ,                        !- Outside Boundary Condition Object
    autocalculate,           !- View Factor to Ground
    ,                        !- Frame and Divider Name
    1,                       !- Multiplier
    4,                       !- Number of Vertices
    0.5019664133390461, 0, 2.64,
    0.5019664133390461, 0, 0.66,
    4.517697720051415, 0, 0.66,
    4.517697720051415, 0, 2.64;

! --- Internal gains ---

People,
    Room_211_People,  !- Name
    Room_211,         !- Zone or ZoneList or Space or SpaceList Name
    Office Occupancy,        !- Number of People Schedule Name
    People/Area,             !- Number of People Calculation Method
    ,                        !- Number of People
    0.05,  !- People per Zone Floor Area {person/m2}
    ,                        !- Zone Floor Area per Person {m2/person}
    0.3,                     !- Fraction Radiant
    autocalculate,           !- Sensible Heat Fraction
    Activity Level Schedule; !- Activity Level Schedule Name

Lights,
    Room_211_Lights,  !- Name
    Room_211,         !- Zone or ZoneList or Space or SpaceList Name
    Office Occupancy,        !- Schedule Name
    Watts/Area,              !- Design Level Calculation Method
    ,                        !- Lighting Level {W}
    10,  !- Watts per Floor Area {W/m2}
    ,                        !- Watts per Person {W/person}
    0,                       !- Return Air Fraction
    0.72,                    !- Fraction Radiant
    0.18,                    !- Fraction Visible
    1;                       !- Fraction Replaceable

ElectricEquipment,
    Room_211_Equipment,  !- Name
    Room_211,         !- Zone or ZoneList or Space or SpaceList Name
    Office Occupancy,        !- Schedule Name
    Watts/Area,              !- Design Level Calculation Method
    ,                        !- Design Level {W}
    12,  !- Watts per Floor Area {W/m2}
    ,                        !- Watts per Person {W/person}
    0,                       !- Fraction Latent
    0.5,                     !- Fraction Radiant
    0;                       !- Fraction Lost

ZoneInfiltration:DesignFlowRate,
    Room_211_Infiltration,  !- Name
    Room_211,         !- Zone or ZoneList or Space or SpaceList Name
    Always On,               !- Schedule Name
    AirChanges/Hour,         !- Design Flow Rate Calculation Method
    ,                        !- Design Flow Rate {m3/s}
    ,                        !- Flow per Zone Floor Area {m3/s-m2}
    ,                        !- Flow per Exterior Surface Area {m3/s-m2}
    0.5;  !- Air Changes per Hour {1/hr}

! --- HVAC: IdealLoadsAirSystem ---

ZoneControl:Thermostat,
    Room_211 Thermostat,  !- Name
    Room_211,         !- Zone or ZoneList Name
    HVACTemplate-Always 4,   !- Control Type Schedule Name
    ThermostatSetpoint:DualSetpoint,  !- Control Object Type
    Room_211 Dual SP; !- Control Name

ThermostatSetpoint:DualSetpoint,
    Room_211 Dual SP, !- Name
    Heating Setpoint Schedule,  !- Heating Setpoint Temperature Schedule Name
    Cooling Setpoint Schedule;  !- Cooling Setpoint Temperature Schedule Name

ZoneHVAC:EquipmentConnections,
    Room_211,         !- Zone Name
    Room_211 Equipment,  !- Zone Conditioning Equipment List Name
    Room_211 Supply Inlet,  !- Zone Air Inlet Node or NodeList Name
    ,                        !- Zone Air Exhaust Node or NodeList Name
    Room_211 Air Node,  !- Zone Air Node Name
    Room_211 Return;  !- Zone Return Air Node Name

ZoneHVAC:EquipmentList,
    Room_211 Equipment,  !- Name
    SequentialLoad,          !- Load Distribution Scheme
    ZoneHVAC:IdealLoadsAirSystem,  !- Zone Equipment Object Type
    Room_211 Ideal Loads,  !- Zone Equipment Name
    1,                       !- Zone Equipment Cooling Sequence
    1,                       !- Zone Equipment Heating or No-Load Sequence
    ,                        !- Zone Equipment Sequential Cooling Fraction
    ;                        !- Zone Equipment Sequential Heating Fraction

ZoneHVAC:IdealLoadsAirSystem,
    Room_211 Ideal Loads,  !- Name
    Always On,               !- Availability Schedule Name
    Room_211 Supply Inlet,  !- Zone Supply Air Node Name
    ,                        !- Zone Exhaust Air Node Name
    ,                        !- System Inlet Air Node Name
    50,                      !- Maximum Heating Supply Air Temperature [C]
    13,                      !- Minimum Cooling Supply Air Temperature [C]
    0.0156,                  !- Maximum Heating Supply Air Humidity Ratio
    0.0077,                  !- Minimum Cooling Supply Air Humidity Ratio
    LimitCapacity,           !- Heating Limit
    ,                        !- Maximum Heating Air Flow Rate {m3/s}
    3000,  !- Maximum Sensible Heating Capacity {W}
    LimitCapacity,           !- Cooling Limit
    ,                        !- Maximum Cooling Air Flow Rate {m3/s}
    3000,  !- Maximum Total Cooling Capacity {W}
    ,                        !- Heating Availability Schedule Name
    ,                        !- Cooling Availability Schedule Name
    ConstantSensibleHeatRatio,  !- Dehumidification Control Type
    0.7,                     !- Cooling Sensible Heat Ratio
    None,                    !- Humidification Control Type
    ,                        !- Design Specification Outdoor Air Object Name
    ,                        !- Outdoor Air Inlet Node Name
    None,                    !- Demand Controlled Ventilation Type
    NoEconomizer,            !- Outdoor Air Economizer Type
    None,                    !- Heat Recovery Type
    0.7,                     !- Sensible Heat Recovery Effectiveness
    0.65;                    !- Latent Heat Recovery Effectiveness


! ================================================================
! ZONE: Room_213
! ================================================================

Zone,
    Room_213,         !- Name
    0,                       !- Direction of Relative North {deg}
    0,     !- X Origin {m}
    0,     !- Y Origin {m}
    0,                       !- Z Origin {m}
    1,                       !- Type
    1,                       !- Multiplier
    autocalculate,           !- Ceiling Height {m}
    65.7138482996631;       !- Volume {m3}

! --- Envelope surfaces ---

BuildingSurface:Detailed,
    Room_213_Floor,   !- Name
    Floor,                   !- Surface Type
    Int_Floor,  !- Construction Name
    Room_213,         !- Zone Name
    ,                        !- Space Name
    Ground,                  !- Outside Boundary Condition
    ,                        !- Outside Boundary Condition Object
    NoSun,                   !- Sun Exposure
    NoWind,                  !- Wind Exposure
    autocalculate,           !- View Factor to Ground
    4,                       !- Number of Vertices
    0, 0, 0,
    0, 4.462430656034481, 0,
    4.462430656034481, 4.462430656034481, 0,
    4.462430656034481, 0, 0;

BuildingSurface:Detailed,
    Room_213_Ceiling, !- Name
    Ceiling,                 !- Surface Type
    Ext_Roof,  !- Construction Name
    Room_213,         !- Zone Name
    ,                        !- Space Name
    Outdoors,                !- Outside Boundary Condition
    ,                        !- Outside Boundary Condition Object
    SunExposed,              !- Sun Exposure
    WindExposed,             !- Wind Exposure
    autocalculate,           !- View Factor to Ground
    4,                       !- Number of Vertices
    4.462430656034481, 0, 3.30000000059956,
    4.462430656034481, 4.462430656034481, 3.30000000059956,
    0, 4.462430656034481, 3.30000000059956,
    0, 0, 3.30000000059956;

BuildingSurface:Detailed,
    Room_213_Wall_South,  !- Name
    Wall,                    !- Surface Type
    Ext_Wall, !- Construction Name
    Room_213,         !- Zone Name
    ,                        !- Space Name
    Outdoors,                !- Outside Boundary Condition
    ,                        !- Outside Boundary Condition Object
    SunExposed,              !- Sun Exposure
    WindExposed,             !- Wind Exposure
    autocalculate,           !- View Factor to Ground
    4,                       !- Number of Vertices
    0, 0, 3.30000000059956,
    0, 0, 0,
    4.462430656034481, 0, 0,
    4.462430656034481, 0, 3.30000000059956;

BuildingSurface:Detailed,
    Room_213_Wall_North,  !- Name
    Wall,                    !- Surface Type
    Ext_Wall, !- Construction Name
    Room_213,         !- Zone Name
    ,                        !- Space Name
    Outdoors,                !- Outside Boundary Condition
    ,                        !- Outside Boundary Condition Object
    SunExposed,              !- Sun Exposure
    WindExposed,             !- Wind Exposure
    autocalculate,           !- View Factor to Ground
    4,                       !- Number of Vertices
    4.462430656034481, 4.462430656034481, 3.30000000059956,
    4.462430656034481, 4.462430656034481, 0,
    0, 4.462430656034481, 0,
    0, 4.462430656034481, 3.30000000059956;

BuildingSurface:Detailed,
    Room_213_Wall_East,  !- Name
    Wall,                    !- Surface Type
    Ext_Wall, !- Construction Name
    Room_213,         !- Zone Name
    ,                        !- Space Name
    Outdoors,                !- Outside Boundary Condition
    ,                        !- Outside Boundary Condition Object
    SunExposed,              !- Sun Exposure
    WindExposed,             !- Wind Exposure
    autocalculate,           !- View Factor to Ground
    4,                       !- Number of Vertices
    4.462430656034481, 0, 3.30000000059956,
    4.462430656034481, 0, 0,
    4.462430656034481, 4.462430656034481, 0,
    4.462430656034481, 4.462430656034481, 3.30000000059956;

BuildingSurface:Detailed,
    Room_213_Wall_West,  !- Name
    Wall,                    !- Surface Type
    Ext_Wall, !- Construction Name
    Room_213,         !- Zone Name
    ,                        !- Space Name
    Outdoors,                !- Outside Boundary Condition
    ,                        !- Outside Boundary Condition Object
    SunExposed,              !- Sun Exposure
    WindExposed,             !- Wind Exposure
    autocalculate,           !- View Factor to Ground
    4,                       !- Number of Vertices
    0, 4.462430656034481, 3.30000000059956,
    0, 4.462430656034481, 0,
    0, 0, 0,
    0, 0, 3.30000000059956;

FenestrationSurface:Detailed,
    Room_213_Window_South,  !- Name
    Window,                  !- Surface Type
    Simple_Window_Const,  !- Construction Name
    Room_213_Wall_South,  !- Building Surface Name
    ,                        !- Outside Boundary Condition Object
    autocalculate,           !- View Factor to Ground
    ,                        !- Frame and Divider Name
    1,                       !- Multiplier
    4,                       !- Number of Vertices
    0.4462430656034482, 0, 2.640000000479648,
    0.4462430656034482, 0, 0.660000000119912,
    4.016187590431033, 0, 0.660000000119912,
    4.016187590431033, 0, 2.640000000479648;

! --- Internal gains ---

People,
    Room_213_People,  !- Name
    Room_213,         !- Zone or ZoneList or Space or SpaceList Name
    Office Occupancy,        !- Number of People Schedule Name
    People/Area,             !- Number of People Calculation Method
    ,                        !- Number of People
    0.05,  !- People per Zone Floor Area {person/m2}
    ,                        !- Zone Floor Area per Person {m2/person}
    0.3,                     !- Fraction Radiant
    autocalculate,           !- Sensible Heat Fraction
    Activity Level Schedule; !- Activity Level Schedule Name

Lights,
    Room_213_Lights,  !- Name
    Room_213,         !- Zone or ZoneList or Space or SpaceList Name
    Office Occupancy,        !- Schedule Name
    Watts/Area,              !- Design Level Calculation Method
    ,                        !- Lighting Level {W}
    10,  !- Watts per Floor Area {W/m2}
    ,                        !- Watts per Person {W/person}
    0,                       !- Return Air Fraction
    0.72,                    !- Fraction Radiant
    0.18,                    !- Fraction Visible
    1;                       !- Fraction Replaceable

ElectricEquipment,
    Room_213_Equipment,  !- Name
    Room_213,         !- Zone or ZoneList or Space or SpaceList Name
    Office Occupancy,        !- Schedule Name
    Watts/Area,              !- Design Level Calculation Method
    ,                        !- Design Level {W}
    12,  !- Watts per Floor Area {W/m2}
    ,                        !- Watts per Person {W/person}
    0,                       !- Fraction Latent
    0.5,                     !- Fraction Radiant
    0;                       !- Fraction Lost

ZoneInfiltration:DesignFlowRate,
    Room_213_Infiltration,  !- Name
    Room_213,         !- Zone or ZoneList or Space or SpaceList Name
    Always On,               !- Schedule Name
    AirChanges/Hour,         !- Design Flow Rate Calculation Method
    ,                        !- Design Flow Rate {m3/s}
    ,                        !- Flow per Zone Floor Area {m3/s-m2}
    ,                        !- Flow per Exterior Surface Area {m3/s-m2}
    0.5;  !- Air Changes per Hour {1/hr}

! --- HVAC: IdealLoadsAirSystem ---

ZoneControl:Thermostat,
    Room_213 Thermostat,  !- Name
    Room_213,         !- Zone or ZoneList Name
    HVACTemplate-Always 4,   !- Control Type Schedule Name
    ThermostatSetpoint:DualSetpoint,  !- Control Object Type
    Room_213 Dual SP; !- Control Name

ThermostatSetpoint:DualSetpoint,
    Room_213 Dual SP, !- Name
    Heating Setpoint Schedule,  !- Heating Setpoint Temperature Schedule Name
    Cooling Setpoint Schedule;  !- Cooling Setpoint Temperature Schedule Name

ZoneHVAC:EquipmentConnections,
    Room_213,         !- Zone Name
    Room_213 Equipment,  !- Zone Conditioning Equipment List Name
    Room_213 Supply Inlet,  !- Zone Air Inlet Node or NodeList Name
    ,                        !- Zone Air Exhaust Node or NodeList Name
    Room_213 Air Node,  !- Zone Air Node Name
    Room_213 Return;  !- Zone Return Air Node Name

ZoneHVAC:EquipmentList,
    Room_213 Equipment,  !- Name
    SequentialLoad,          !- Load Distribution Scheme
    ZoneHVAC:IdealLoadsAirSystem,  !- Zone Equipment Object Type
    Room_213 Ideal Loads,  !- Zone Equipment Name
    1,                       !- Zone Equipment Cooling Sequence
    1,                       !- Zone Equipment Heating or No-Load Sequence
    ,                        !- Zone Equipment Sequential Cooling Fraction
    ;                        !- Zone Equipment Sequential Heating Fraction

ZoneHVAC:IdealLoadsAirSystem,
    Room_213 Ideal Loads,  !- Name
    Always On,               !- Availability Schedule Name
    Room_213 Supply Inlet,  !- Zone Supply Air Node Name
    ,                        !- Zone Exhaust Air Node Name
    ,                        !- System Inlet Air Node Name
    50,                      !- Maximum Heating Supply Air Temperature [C]
    13,                      !- Minimum Cooling Supply Air Temperature [C]
    0.0156,                  !- Maximum Heating Supply Air Humidity Ratio
    0.0077,                  !- Minimum Cooling Supply Air Humidity Ratio
    LimitCapacity,           !- Heating Limit
    ,                        !- Maximum Heating Air Flow Rate {m3/s}
    3000,  !- Maximum Sensible Heating Capacity {W}
    LimitCapacity,           !- Cooling Limit
    ,                        !- Maximum Cooling Air Flow Rate {m3/s}
    3000,  !- Maximum Total Cooling Capacity {W}
    ,                        !- Heating Availability Schedule Name
    ,                        !- Cooling Availability Schedule Name
    ConstantSensibleHeatRatio,  !- Dehumidification Control Type
    0.7,                     !- Cooling Sensible Heat Ratio
    None,                    !- Humidification Control Type
    ,                        !- Design Specification Outdoor Air Object Name
    ,                        !- Outdoor Air Inlet Node Name
    None,                    !- Demand Controlled Ventilation Type
    NoEconomizer,            !- Outdoor Air Economizer Type
    None,                    !- Heat Recovery Type
    0.7,                     !- Sensible Heat Recovery Effectiveness
    0.65;                    !- Latent Heat Recovery Effectiveness


! ================================================================
! ZONE: Room_213bis
! ================================================================

Zone,
    Room_213bis,         !- Name
    0,                       !- Direction of Relative North {deg}
    0,     !- X Origin {m}
    0,     !- Y Origin {m}
    0,                       !- Z Origin {m}
    1,                       !- Type
    1,                       !- Multiplier
    autocalculate,           !- Ceiling Height {m}
    43.2991074431512;       !- Volume {m3}

! --- Envelope surfaces ---

BuildingSurface:Detailed,
    Room_213bis_Floor,   !- Name
    Floor,                   !- Surface Type
    Int_Floor,  !- Construction Name
    Room_213bis,         !- Zone Name
    ,                        !- Space Name
    Ground,                  !- Outside Boundary Condition
    ,                        !- Outside Boundary Condition Object
    NoSun,                   !- Sun Exposure
    NoWind,                  !- Wind Exposure
    autocalculate,           !- View Factor to Ground
    4,                       !- Number of Vertices
    0, 0, 0,
    0, 3.6222840376535577, 0,
    3.6222840376535577, 3.6222840376535577, 0,
    3.6222840376535577, 0, 0;

BuildingSurface:Detailed,
    Room_213bis_Ceiling, !- Name
    Ceiling,                 !- Surface Type
    Ext_Roof,  !- Construction Name
    Room_213bis,         !- Zone Name
    ,                        !- Space Name
    Outdoors,                !- Outside Boundary Condition
    ,                        !- Outside Boundary Condition Object
    SunExposed,              !- Sun Exposure
    WindExposed,             !- Wind Exposure
    autocalculate,           !- View Factor to Ground
    4,                       !- Number of Vertices
    3.6222840376535577, 0, 3.3,
    3.6222840376535577, 3.6222840376535577, 3.3,
    0, 3.6222840376535577, 3.3,
    0, 0, 3.3;

BuildingSurface:Detailed,
    Room_213bis_Wall_South,  !- Name
    Wall,                    !- Surface Type
    Ext_Wall, !- Construction Name
    Room_213bis,         !- Zone Name
    ,                        !- Space Name
    Outdoors,                !- Outside Boundary Condition
    ,                        !- Outside Boundary Condition Object
    SunExposed,              !- Sun Exposure
    WindExposed,             !- Wind Exposure
    autocalculate,           !- View Factor to Ground
    4,                       !- Number of Vertices
    0, 0, 3.3,
    0, 0, 0,
    3.6222840376535577, 0, 0,
    3.6222840376535577, 0, 3.3;

BuildingSurface:Detailed,
    Room_213bis_Wall_North,  !- Name
    Wall,                    !- Surface Type
    Ext_Wall, !- Construction Name
    Room_213bis,         !- Zone Name
    ,                        !- Space Name
    Outdoors,                !- Outside Boundary Condition
    ,                        !- Outside Boundary Condition Object
    SunExposed,              !- Sun Exposure
    WindExposed,             !- Wind Exposure
    autocalculate,           !- View Factor to Ground
    4,                       !- Number of Vertices
    3.6222840376535577, 3.6222840376535577, 3.3,
    3.6222840376535577, 3.6222840376535577, 0,
    0, 3.6222840376535577, 0,
    0, 3.6222840376535577, 3.3;

BuildingSurface:Detailed,
    Room_213bis_Wall_East,  !- Name
    Wall,                    !- Surface Type
    Ext_Wall, !- Construction Name
    Room_213bis,         !- Zone Name
    ,                        !- Space Name
    Outdoors,                !- Outside Boundary Condition
    ,                        !- Outside Boundary Condition Object
    SunExposed,              !- Sun Exposure
    WindExposed,             !- Wind Exposure