ExternalInterface,
    FunctionalMockupUnitExport;  !- Name

!-Generator Python generate_model.py
!-Option SortedOrder

Version,
    23.2;                    !- Version Identifier

SimulationControl,
    No,                      !- Do Zone Sizing Calculation
    No,                      !- Do System Sizing Calculation
    No,                      !- Do Plant Sizing Calculation
    No,                      !- Run Simulation for Sizing Periods
    Yes,                     !- Run Simulation for Weather File Run Periods
    No,                      !- Do HVAC Sizing Simulation for Sizing Periods
    ;                        !- Maximum Number of HVAC Sizing Simulation Passes

Building,
    VAV_Test_Office,     !- Name
    0,                       !- North Axis {deg}
    City,                    !- Terrain
    0.001,                   !- Loads Convergence Tolerance Value {W}
    0.01,                    !- Temperature Convergence Tolerance Value {deltaC}
    FullExterior,            !- Solar Distribution
    100,                     !- Maximum Number of Warmup Days
    6;                       !- Minimum Number of Warmup Days

Timestep,
    6;          !- Number of Timesteps per Hour

RunPeriod,
    AnnualRun,               !- Name
    1,   !- Begin Month
    1,     !- Begin Day of Month
    2024,    !- Begin Year
    3,     !- End Month
    1,       !- End Day of Month
    2024,      !- End Year
    Monday,                  !- Day of Week for Start Day
    No,                      !- Use Weather File Holidays and Special Days
    No,                      !- Use Weather File Daylight Saving Period
    No,                      !- Apply Weekend Holiday Rule
    Yes,                     !- Use Weather File Rain Indicators
    Yes,                     !- Use Weather File Snow Indicators
    No,                      !- Treat Weather as Actual
    Hour24;                  !- First Hour Interpolation Starting Values

SurfaceConvectionAlgorithm:Inside,
    TARP;                    !- Algorithm

SurfaceConvectionAlgorithm:Outside,
    DOE-2;                   !- Algorithm

HeatBalanceAlgorithm,
    ConductionTransferFunction,  !- Algorithm
    200;                     !- Surface Temperature Upper Limit {C}

ScheduleTypeLimits,
    Fractional,              !- Name
    0,                       !- Lower Limit Value
    1,                       !- Upper Limit Value
    Continuous,              !- Numeric Type
    dimensionless;           !- Unit Type

ScheduleTypeLimits,
    AnyNumber,               !- Name
    ,                        !- Lower Limit Value
    ,                        !- Upper Limit Value
    Continuous,              !- Numeric Type
    Dimensionless;           !- Unit Type

ScheduleTypeLimits,
    Temperature,             !- Name
    -273.15,                 !- Lower Limit Value
    ,                        !- Upper Limit Value
    Continuous,              !- Numeric Type
    Temperature;             !- Unit Type

! --- Global Geometry Rules ---
GlobalGeometryRules,
    UpperLeftCorner,         !- Starting Vertex Position
    Counterclockwise,        !- Vertex Entry Direction
    Relative;                !- Coordinate System

! --- Schedules ---

Schedule:Compact,
    Always On,               !- Name
    Fractional,              !- Schedule Type Limits Name
    Through: 12/31,          !- Field 1
    For: AllDays,            !- Field 2
    Until: 24:00, 1;         !- Field 3-4

Schedule:Compact,
    Always Off,              !- Name
    Fractional,              !- Schedule Type Limits Name
    Through: 12/31,          !- Field 1
    For: AllDays,            !- Field 2
    Until: 24:00, 0;         !- Field 3-4

Schedule:Compact,
    HVACTemplate-Always 4,   !- Name
    AnyNumber,               !- Schedule Type Limits Name
    Through: 12/31,          !- Field 1
    For: AllDays,            !- Field 2
    Until: 24:00, 4;         !- Field 3-4

Schedule:Compact,
    Heating Setpoint Schedule,  !- Name
    Temperature,             !- Schedule Type Limits Name
    Through: 12/31,          !- Field 1
    For: Weekdays,           !- Field 2
    Until: 7:00, 18,  !- Field 3-4
    Until: 20:00, 23,  !- Field 5-6
    Until: 24:00, 18,  !- Field 7-8
    For: AllOtherDays,       !- Field 9
    Until: 24:00, 18;  !- Field 10-11

Schedule:Compact,
    Cooling Setpoint Schedule,  !- Name
    Temperature,             !- Schedule Type Limits Name
    Through: 12/31,          !- Field 1
    For: Weekdays,           !- Field 2
    Until: 7:00, 30,  !- Field 3-4
    Until: 20:00, 25,  !- Field 5-6
    Until: 24:00, 30,  !- Field 7-8
    For: AllOtherDays,       !- Field 9
    Until: 24:00, 30;  !- Field 10-11

Schedule:Compact,
    Office Occupancy,        !- Name
    Fractional,              !- Schedule Type Limits Name
    Through: 12/31,          !- Field 1
    For: Weekdays,           !- Field 2
    Until: 7:00, 0,          !- Field 3-4
    Until: 8:00, 0.1,        !- Field 5-6
    Until: 9:00, 0.9,        !- Field 7-8
    Until: 17:00, 1.0,       !- Field 9-10
    Until: 18:00, 0.8,       !- Field 11-12
    Until: 20:00, 0.3,       !- Field 13-14
    Until: 21:00, 0.1,       !- Field 15-16
    Until: 24:00, 0,         !- Field 17-18
    For: AllOtherDays,       !- Field 19
    Until: 24:00, 0;         !- Field 20-21


! ================================================================
! ZONE: Zone_VAV_1
! ================================================================

Zone,
    Zone_VAV_1,         !- Name
    0,                       !- Direction of Relative North {deg}
    0,     !- X Origin {m}
    0,     !- Y Origin {m}
    0,                       !- Z Origin {m}
    1,                       !- Type
    1,                       !- Multiplier
    autocalculate,           !- Ceiling Height {m}
    150.0;       !- Volume {m3}

! --- Envelope surfaces ---

BuildingSurface:Detailed,
    Zone_VAV_1_Floor,   !- Name
    Floor,                   !- Surface Type
    Int_Floor,  !- Construction Name
    Zone_VAV_1,         !- Zone Name
    ,                        !- Space Name
    Ground,                  !- Outside Boundary Condition
    ,                        !- Outside Boundary Condition Object
    NoSun,                   !- Sun Exposure
    NoWind,                  !- Wind Exposure
    autocalculate,           !- View Factor to Ground
    4,                       !- Number of Vertices
    0, 0, 0,
    0, 7.0710678118654755, 0,
    7.0710678118654755, 7.0710678118654755, 0,
    7.0710678118654755, 0, 0;

BuildingSurface:Detailed,
    Zone_VAV_1_Ceiling, !- Name
    Ceiling,                 !- Surface Type
    Ext_Roof,  !- Construction Name
    Zone_VAV_1,         !- Zone Name
    ,                        !- Space Name
    Outdoors,                !- Outside Boundary Condition
    ,                        !- Outside Boundary Condition Object
    SunExposed,              !- Sun Exposure
    WindExposed,             !- Wind Exposure
    autocalculate,           !- View Factor to Ground
    4,                       !- Number of Vertices
    7.0710678118654755, 0, 3.0,
    7.0710678118654755, 7.0710678118654755, 3.0,
    0, 7.0710678118654755, 3.0,
    0, 0, 3.0;

BuildingSurface:Detailed,
    Zone_VAV_1_Wall_South,  !- Name
    Wall,                    !- Surface Type
    Ext_Wall, !- Construction Name
    Zone_VAV_1,         !- Zone Name
    ,                        !- Space Name
    Outdoors,                !- Outside Boundary Condition
    ,                        !- Outside Boundary Condition Object
    SunExposed,              !- Sun Exposure
    WindExposed,             !- Wind Exposure
    autocalculate,           !- View Factor to Ground
    4,                       !- Number of Vertices
    0, 0, 3.0,
    0, 0, 0,
    7.0710678118654755, 0, 0,
    7.0710678118654755, 0, 3.0;

BuildingSurface:Detailed,
    Zone_VAV_1_Wall_North,  !- Name
    Wall,                    !- Surface Type
    Ext_Wall, !- Construction Name
    Zone_VAV_1,         !- Zone Name
    ,                        !- Space Name
    Outdoors,                !- Outside Boundary Condition
    ,                        !- Outside Boundary Condition Object
    SunExposed,              !- Sun Exposure
    WindExposed,             !- Wind Exposure
    autocalculate,           !- View Factor to Ground
    4,                       !- Number of Vertices
    7.0710678118654755, 7.0710678118654755, 3.0,
    7.0710678118654755, 7.0710678118654755, 0,
    0, 7.0710678118654755, 0,
    0, 7.0710678118654755, 3.0;

BuildingSurface:Detailed,
    Zone_VAV_1_Wall_East,  !- Name
    Wall,                    !- Surface Type
    Ext_Wall, !- Construction Name
    Zone_VAV_1,         !- Zone Name
    ,                        !- Space Name
    Outdoors,                !- Outside Boundary Condition
    ,                        !- Outside Boundary Condition Object
    SunExposed,              !- Sun Exposure
    WindExposed,             !- Wind Exposure
    autocalculate,           !- View Factor to Ground
    4,                       !- Number of Vertices
    7.0710678118654755, 0, 3.0,
    7.0710678118654755, 0, 0,
    7.0710678118654755, 7.0710678118654755, 0,
    7.0710678118654755, 7.0710678118654755, 3.0;

BuildingSurface:Detailed,
    Zone_VAV_1_Wall_West,  !- Name
    Wall,                    !- Surface Type
    Ext_Wall, !- Construction Name
    Zone_VAV_1,         !- Zone Name
    ,                        !- Space Name
    Outdoors,                !- Outside Boundary Condition
    ,                        !- Outside Boundary Condition Object
    SunExposed,              !- Sun Exposure
    WindExposed,             !- Wind Exposure
    autocalculate,           !- View Factor to Ground
    4,                       !- Number of Vertices
    0, 7.0710678118654755, 3.0,
    0, 7.0710678118654755, 0,
    0, 0, 0,
    0, 0, 3.0;

FenestrationSurface:Detailed,
    Zone_VAV_1_Window_South,  !- Name
    Window,                  !- Surface Type
    Simple_Window_Const,  !- Construction Name
    Zone_VAV_1_Wall_South,  !- Building Surface Name
    ,                        !- Outside Boundary Condition Object
    autocalculate,           !- View Factor to Ground
    ,                        !- Frame and Divider Name
    1,                       !- Multiplier
    4,                       !- Number of Vertices
    0.7071067811865476, 0, 2.4000000000000004,
    0.7071067811865476, 0, 0.6000000000000001,
    6.3639610306789285, 0, 0.6000000000000001,
    6.3639610306789285, 0, 2.4000000000000004;

! --- Internal gains ---

People,
    Zone_VAV_1_People,  !- Name
    Zone_VAV_1,         !- Zone or ZoneList or Space or SpaceList Name
    Office Occupancy,        !- Number of People Schedule Name
    People/Area,             !- Number of People Calculation Method
    ,                        !- Number of People
    0.05,  !- People per Zone Floor Area {person/m2}
    ,                        !- Zone Floor Area per Person {m2/person}
    0.3,                     !- Fraction Radiant
    autocalculate,           !- Sensible Heat Fraction
    Activity Level Schedule; !- Activity Level Schedule Name

Lights,
    Zone_VAV_1_Lights,  !- Name
    Zone_VAV_1,         !- Zone or ZoneList or Space or SpaceList Name
    Office Occupancy,        !- Schedule Name
    Watts/Area,              !- Design Level Calculation Method
    ,                        !- Lighting Level {W}
    10,  !- Watts per Floor Area {W/m2}
    ,                        !- Watts per Person {W/person}
    0,                       !- Return Air Fraction
    0.72,                    !- Fraction Radiant
    0.18,                    !- Fraction Visible
    1;                       !- Fraction Replaceable

ElectricEquipment,
    Zone_VAV_1_Equipment,  !- Name
    Zone_VAV_1,         !- Zone or ZoneList or Space or SpaceList Name
    Office Occupancy,        !- Schedule Name
    Watts/Area,              !- Design Level Calculation Method
    ,                        !- Design Level {W}
    12,  !- Watts per Floor Area {W/m2}
    ,                        !- Watts per Person {W/person}
    0,                       !- Fraction Latent
    0.5,                     !- Fraction Radiant
    0;                       !- Fraction Lost

ZoneInfiltration:DesignFlowRate,
    Zone_VAV_1_Infiltration,  !- Name
    Zone_VAV_1,         !- Zone or ZoneList or Space or SpaceList Name
    0.5;  !- Air Changes per Hour {1/hr}

! --- HVAC: VAV System ---

ZoneControl:Thermostat,
    Zone_VAV_1 Thermostat,  !- Name
    Zone_VAV_1,         !- Zone or ZoneList Name
    HVACTemplate-Always 4,   !- Control Type Schedule Name
    ThermostatSetpoint:DualSetpoint,  !- Control Object Type
    Zone_VAV_1 Dual SP; !- Control Name

ThermostatSetpoint:DualSetpoint,
    Zone_VAV_1 Dual SP, !- Name
    Heating Setpoint Schedule,  !- Heating Setpoint Temperature Schedule Name
    Cooling Setpoint Schedule;  !- Cooling Setpoint Temperature Schedule Name

ZoneHVAC:EquipmentConnections,
    Zone_VAV_1,         !- Zone Name
    Zone_VAV_1 Equipment,  !- Zone Conditioning Equipment List Name
    Zone_VAV_1 Supply Inlet,  !- Zone Air Inlet Node or NodeList Name
    ,                        !- Zone Air Exhaust Node or NodeList Name
    Zone_VAV_1 Air Node,  !- Zone Air Node Name
    Zone_VAV_1 Return;  !- Zone Return Air Node Name

ZoneHVAC:EquipmentList,
    Zone_VAV_1 Equipment,  !- Name
    SequentialLoad,          !- Load Distribution Scheme
    
    ZoneHVAC:UnitarySystem,  !- Zone Equipment Object Type
    Zone_VAV_1 VAV,     !- Zone Equipment Name
    
    1,                       !- Zone Equipment Cooling Sequence
    1,                       !- Zone Equipment Heating or No-Load Sequence
    ,                        !- Zone Equipment Sequential Cooling Fraction
    ;                        !- Zone Equipment Sequential Heating Fraction


ZoneHVAC:UnitarySystem,
    Zone_VAV_1 VAV,     !- Name
    Always On,               !- Availability Schedule Name
    Zone_VAV_1 Supply Inlet,  !- Air Inlet Node Name
    Zone_VAV_1 Air Node, !- Air Outlet Node Name
    ,                        !- Control Port Node Name
    Fan:VariableVolume,      !- Supply Fan Object Type
    Zone_VAV_1 Fan,     !- Supply Fan Name
    ,                        !- Fan Placement
    ,                        !- Supply Air Fan Operating Mode Schedule Name
    Coil:Heating:Electric,   !- Heating Coil Object Type
    Zone_VAV_1 HeatCoil, !- Heating Coil Name
    ,                        !- DX Heating Coil Quarterly Outage Fraction
    ,                        !- DX Heating Coil Quarterly Outage Period
    Coil:Cooling:DX:SingleSpeed, !- Cooling Coil Object Type
    Zone_VAV_1 CoolCoil, !- Cooling Coil Name
    ;                        !- Dehumidification Control Type

Fan:VariableVolume,
    Zone_VAV_1 Fan,     !- Name
    Always On,               !- Availability Schedule Name
    0.7,                     !- Fan Total Efficiency
    600,                     !- Pressure Rise {Pa}
    3.0, !- Maximum Flow Rate {m3/s}
    FixedQuarterly,          !- Fan Power Coefficient Array Name
    0.2,                     !- Minimum Flow Fraction
    Zone_VAV_1 Supply Inlet,  !- Air Inlet Node Name
    Zone_VAV_1 HeatNode;  !- Air Outlet Node Name

Coil:Heating:Electric,
    Zone_VAV_1 HeatCoil, !- Name
    Always On,               !- Availability Schedule Name
    1.0,                     !- Efficiency
    3000, !- Nominal Capacity {W}
    Zone_VAV_1 HeatNode, !- Air Inlet Node Name
    Zone_VAV_1 CoolNode; !- Air Outlet Node Name

Coil:Cooling:DX:SingleSpeed,
    Zone_VAV_1 CoolCoil, !- Name
    Always On,               !- Availability Schedule Name
    3000, !- Gross Rated Total Cooling Capacity {W}
    0.75,                    !- Gross Rated Sensible Heat Ratio
    3.0,                     !- Gross Rated COP {W/W}
    1.5, !- Rated Air Flow Rate {m3/s}
    Zone_VAV_1 CoolNode, !- Air Inlet Node Name
    Zone_VAV_1 Air Node; !- Air Outlet Node Name





! --- Shared schedules ---

Schedule:Compact,
    Activity Level Schedule, !- Name
    AnyNumber,               !- Schedule Type Limits Name
    Through: 12/31,          !- Field 1
    For: AllDays,            !- Field 2
    Until: 24:00, 120;       !- Field 3-4 (120 W/person seated)

! --- Materials and Constructions ---

Material,
    Concrete_200mm,          !- Name
    MediumRough,             !- Roughness
    0.2,                     !- Thickness {m}
    1.4,                     !- Conductivity {W/m-K}
    2100,                    !- Density {kg/m3}
    840,                     !- Specific Heat {J/kg-K}
    0.9,                     !- Thermal Absorptance
    0.7,                     !- Solar Absorptance
    0.7;                     !- Visible Absorptance

Material,
    Insulation_EPS,          !- Name
    MediumSmooth,            !- Roughness
    0.08,  !- Thickness {m}
    0.04,                    !- Conductivity {W/m-K}
    25,                      !- Density {kg/m3}
    1400,                    !- Specific Heat {J/kg-K}
    0.9,                     !- Thermal Absorptance
    0.7,                     !- Solar Absorptance
    0.7;                     !- Visible Absorptance

Material,
    Plaster_15mm,            !- Name
    Smooth,                  !- Roughness
    0.015,                   !- Thickness {m}
    0.7,                     !- Conductivity {W/m-K}
    1400,                    !- Density {kg/m3}
    840,                     !- Specific Heat {J/kg-K}
    0.9,                     !- Thermal Absorptance
    0.5,                     !- Solar Absorptance
    0.5;                     !- Visible Absorptance

Construction,
    Ext_Wall,                !- Name
    Plaster_15mm,            !- Outside Layer
    Insulation_EPS,          !- Layer 2
    Concrete_200mm,          !- Layer 3
    Plaster_15mm;            !- Layer 4

Construction,
    Int_Floor,               !- Name
    Concrete_200mm;          !- Outside Layer

Construction,
    Ext_Roof,                !- Name
    Plaster_15mm,            !- Outside Layer
    Insulation_EPS,          !- Layer 2
    Concrete_200mm;          !- Layer 3

WindowMaterial:SimpleGlazingSystem,
    Simple_Window,           !- Name
    2.0,    !- U-Factor {W/m2-K}
    0.4,       !- Solar Heat Gain Coefficient
    ;                        !- Visible Transmittance

Construction,
    Simple_Window_Const,     !- Name
    Simple_Window;           !- Outside Layer

! --- Output Variables ---

Output:Variable,*,Zone Mean Air Temperature,Timestep;
Output:Variable,*,Zone Ideal Loads Zone Total Heating Energy,Timestep;
Output:Variable,*,Zone Ideal Loads Zone Total Cooling Energy,Timestep;

OutputControl:Table:Style,
    HTML;                    !- Column Separator

Output:Table:SummaryReports,
    AllSummary;              !- Report 1

ExternalInterface:Schedule,
    Zone_VAV_1 Dual SP_Ext,
    AnyNumber,
    Zone_VAV_1 Dual SP;  !- Initial Value

ExternalInterface:Schedule,
    !- Name
    Heating Setpoint Schedule,  !- Heating Setpoint Temperature Schedule Name
    Cooling Setpoint Schedule_Ext,
    AnyNumber,
    !- Name
    Heating Setpoint Schedule,  !- Heating Setpoint Temperature Schedule Name
    Cooling Setpoint Schedule;  !- Initial Value

Output:Variable, Zone_VAV_1, Zone Air Temperature, Hourly;

ExternalInterface:Variable, Zone_VAV_1_Temp, Zone_VAV_1, Zone Air Temperature;

ExternalInterface:Actuator,
    !- Supply Fan Object Type
    Zone_VAV_1 Fan_Press,
    !- Supply Fan Object Type
    Zone_VAV_1 Fan,
    Fan,
    Fan Pressure Rise;

ExternalInterface:Actuator,
    Zone_VAV_1 Fan_Press,
    Zone_VAV_1 Fan,
    Fan,
    Fan Pressure Rise;

ExternalInterface:Actuator,
    !- Heating Coil Object Type
    Zone_VAV_1 HeatCoil_Pow,
    !- Heating Coil Object Type
    Zone_VAV_1 HeatCoil,
    Heating Coil,
    Heating Coil Power;

ExternalInterface:Actuator,
    Zone_VAV_1 HeatCoil_Pow,
    Zone_VAV_1 HeatCoil,
    Heating Coil,
    Heating Coil Power;
