!-Generator IDFEditor 1.53
!-Option SortedOrder

!-NOTE: All comments with '!-' are ignored by the IDFEditor and are generated automatically.
!-      Use '!' comments if they need to be retained when using the IDFEditor.


!-   ===========  ALL OBJECTS IN CLASS: VERSION ===========

Version,
    23.2;                    !- Version Identifier


!-   ===========  ALL OBJECTS IN CLASS: SIMULATIONCONTROL ===========

SimulationControl,
    No,                      !- Do Zone Sizing Calculation
    No,                      !- Do System Sizing Calculation
    No,                      !- Do Plant Sizing Calculation
    No,                      !- Run Simulation for Sizing Periods
    Yes,                     !- Run Simulation for Weather File Run Periods
    No,                      !- Do HVAC Sizing Simulation for Sizing Periods
    ;                        !- Maximum Number of HVAC Sizing Simulation Passes


!-   ===========  ALL OBJECTS IN CLASS: BUILDING ===========

Building,
    unnamed,                 !- Name
    0,                       !- North Axis {deg}
    City,                    !- Terrain
    0.001,                   !- Loads Convergence Tolerance Value {W}
    0.01,                    !- Temperature Convergence Tolerance Value {deltaC}
    FullExterior,            !- Solar Distribution
    100,                     !- Maximum Number of Warmup Days
    6;                       !- Minimum Number of Warmup Days


!-   ===========  ALL OBJECTS IN CLASS: SHADOWCALCULATION ===========

ShadowCalculation,
    PolygonClipping,         !- Shading Calculation Method
    Periodic,                !- Shading Calculation Update Frequency Method
    20,                      !- Shading Calculation Update Frequency
    15000,                   !- Maximum Figures in Shadow Overlap Calculations
    SutherlandHodgman,       !- Polygon Clipping Algorithm
    512,                     !- Pixel Counting Resolution
    SimpleSkyDiffuseModeling,!- Sky Diffuse Modeling Algorithm
    No,                      !- Output External Shading Calculation Results
    No,                      !- Disable Self-Shading Within Shading Zone Groups
    No;                      !- Disable Self-Shading From Shading Zone Groups to Other Zones


!-   ===========  ALL OBJECTS IN CLASS: SURFACECONVECTIONALGORITHM:INSIDE ===========

SurfaceConvectionAlgorithm:Inside,
    TARP;                    !- Algorithm


!-   ===========  ALL OBJECTS IN CLASS: SURFACECONVECTIONALGORITHM:OUTSIDE ===========

SurfaceConvectionAlgorithm:Outside,
    DOE-2;                   !- Algorithm


!-   ===========  ALL OBJECTS IN CLASS: HEATBALANCEALGORITHM ===========

HeatBalanceAlgorithm,
    ConductionTransferFunction,  !- Algorithm
    200;                     !- Surface Temperature Upper Limit {C}


!-   ===========  ALL OBJECTS IN CLASS: ZONEAIRHEATBALANCEALGORITHM ===========

ZoneAirHeatBalanceAlgorithm,
    ThirdOrderBackwardDifference,  !- Algorithm
    No,                      !- Do Space Heat Balance for Sizing
    No;                      !- Do Space Heat Balance for Simulation


!-   ===========  ALL OBJECTS IN CLASS: ZONECAPACITANCEMULTIPLIER:RESEARCHSPECIAL ===========

ZoneCapacitanceMultiplier:ResearchSpecial,
    2nd_Floor_Inertia,       !- Name
    2nd_Floor_ZoneList,      !- Zone or ZoneList Name
    15,                      !- Temperature Capacity Multiplier
    10,                      !- Humidity Capacity Multiplier
    1,                       !- Carbon Dioxide Capacity Multiplier
    1;                       !- Generic Contaminant Capacity Multiplier

ZoneCapacitanceMultiplier:ResearchSpecial,
    Room_206_Inertia,        !- Name
    Room_206,                !- Zone or ZoneList Name
    70,                      !- Temperature Capacity Multiplier
    10,                      !- Humidity Capacity Multiplier
    1,                       !- Carbon Dioxide Capacity Multiplier
    1;                       !- Generic Contaminant Capacity Multiplier

ZoneCapacitanceMultiplier:ResearchSpecial,
    Room_216_Inertia,        !- Name
    Room_216,                !- Zone or ZoneList Name
    47,                      !- Temperature Capacity Multiplier
    10,                      !- Humidity Capacity Multiplier
    1,                       !- Carbon Dioxide Capacity Multiplier
    1;                       !- Generic Contaminant Capacity Multiplier

ZoneCapacitanceMultiplier:ResearchSpecial,
    Room_222_Inertia,        !- Name
    Room_222,                !- Zone or ZoneList Name
    43,                      !- Temperature Capacity Multiplier
    10,                      !- Humidity Capacity Multiplier
    1,                       !- Carbon Dioxide Capacity Multiplier
    1;                       !- Generic Contaminant Capacity Multiplier

ZoneCapacitanceMultiplier:ResearchSpecial,
    Room225_Inertia,         !- Name
    Room_225,                !- Zone or ZoneList Name
    40,                      !- Temperature Capacity Multiplier
    10,                      !- Humidity Capacity Multiplier
    1,                       !- Carbon Dioxide Capacity Multiplier
    1;                       !- Generic Contaminant Capacity Multiplier


!-   ===========  ALL OBJECTS IN CLASS: TIMESTEP ===========

Timestep,
    6;                       !- Number of Timesteps per Hour


!-   ===========  ALL OBJECTS IN CLASS: RUNPERIOD ===========

RunPeriod,
    Anno,                    !- Name
    1,                       !- Begin Month
    2,                       !- Begin Day of Month
    2024,                    !- Begin Year
    3,                       !- End Month
    1,                       !- End Day of Month
    2024,                    !- End Year
    Monday,                  !- Day of Week for Start Day
    No,                      !- Use Weather File Holidays and Special Days
    No,                      !- Use Weather File Daylight Saving Period
    No,                      !- Apply Weekend Holiday Rule
    Yes,                     !- Use Weather File Rain Indicators
    Yes,                     !- Use Weather File Snow Indicators
    No,                      !- Treat Weather as Actual
    Hour24;                  !- First Hour Interpolation Starting Values


!-   ===========  ALL OBJECTS IN CLASS: RUNPERIODCONTROL:SPECIALDAYS ===========

RunPeriodControl:SpecialDays,
    New Year,                !- Name
    01/01,                   !- Start Date
    1,                       !- Duration {days}
    Holiday;                 !- Special Day Type

RunPeriodControl:SpecialDays,
    Epiphany,                !- Name
    01/06,                   !- Start Date
    1,                       !- Duration {days}
    Holiday;                 !- Special Day Type

RunPeriodControl:SpecialDays,
    Easter,                  !- Name
    04/20,                   !- Start Date
    2,                       !- Duration {days}
    Holiday;                 !- Special Day Type

RunPeriodControl:SpecialDays,
    Liberation Day,          !- Name
    04/25,                   !- Start Date
    1,                       !- Duration {days}
    Holiday;                 !- Special Day Type

RunPeriodControl:SpecialDays,
    Labour Day,              !- Name
    05/01,                   !- Start Date
    1,                       !- Duration {days}
    Holiday;                 !- Special Day Type

RunPeriodControl:SpecialDays,
    Republic Day,            !- Name
    06/02,                   !- Start Date
    1,                       !- Duration {days}
    Holiday;                 !- Special Day Type

RunPeriodControl:SpecialDays,
    Pfingsten,               !- Name
    06/09,                   !- Start Date
    1,                       !- Duration {days}
    Holiday;                 !- Special Day Type

RunPeriodControl:SpecialDays,
    Ferraggosto,             !- Name
    08/15,                   !- Start Date
    1,                       !- Duration {days}
    Holiday;                 !- Special Day Type

RunPeriodControl:SpecialDays,
    All Saints,              !- Name
    11/01,                   !- Start Date
    1,                       !- Duration {days}
    Holiday;                 !- Special Day Type

RunPeriodControl:SpecialDays,
    Christmas,               !- Name
    12/25,                   !- Start Date
    2,                       !- Duration {days}
    Holiday;                 !- Special Day Type


!-   ===========  ALL OBJECTS IN CLASS: SITE:WATERMAINSTEMPERATURE ===========

Site:WaterMainsTemperature,
    CorrelationFromWeatherFile;  !- Calculation Method


!-   ===========  ALL OBJECTS IN CLASS: SCHEDULETYPELIMITS ===========

ScheduleTypeLimits,
    Fractional,              !- Name
    0,                       !- Lower Limit Value
    1,                       !- Upper Limit Value
    Continuous,              !- Numeric Type
    dimensionless;           !- Unit Type

ScheduleTypeLimits,
    Activity Level,          !- Name
    0,                       !- Lower Limit Value
    150,                     !- Upper Limit Value
    Continuous,              !- Numeric Type
    activitylevel;           !- Unit Type

ScheduleTypeLimits,
    Temperature,             !- Name
    -273.15,                 !- Lower Limit Value
    ,                        !- Upper Limit Value
    Continuous,              !- Numeric Type
    temperature;             !- Unit Type

ScheduleTypeLimits,
    AnyNumber,               !- Name
    ,                        !- Lower Limit Value
    ,                        !- Upper Limit Value
    Continuous,              !- Numeric Type
    Dimensionless;           !- Unit Type

ScheduleTypeLimits,
    AirFlow,                 !- Name
    0,                       !- Lower Limit Value
    0.2,                     !- Upper Limit Value
    Continuous,              !- Numeric Type
    Velocity;                !- Unit Type

ScheduleTypeLimits,
    Clothing,                !- Name
    0,                       !- Lower Limit Value
    2,                       !- Upper Limit Value
    Continuous,              !- Numeric Type
    Dimensionless;           !- Unit Type

ScheduleTypeLimits,
    WorkEfficiency,          !- Name
    0,                       !- Lower Limit Value
    1,                       !- Upper Limit Value
    Continuous,              !- Numeric Type
    Dimensionless;           !- Unit Type

ScheduleTypeLimits,
    Infiltration,            !- Name
    0,                       !- Lower Limit Value
    2,                       !- Upper Limit Value
    Continuous,              !- Numeric Type
    Dimensionless;           !- Unit Type


!-   ===========  ALL OBJECTS IN CLASS: SCHEDULE:DAY:INTERVAL ===========

Schedule:Day:Interval,
    Office Occ Normal_Weekdays,  !- Name
    Fractional,              !- Schedule Type Limits Name
    No,                      !- Interpolate to Timestep
    07:00,                   !- Time 1 {hh:mm}
    0,                       !- Value Until Time 1
    08:00,                   !- Time 2 {hh:mm}
    0.1,                     !- Value Until Time 2
    09:00,                   !- Time 3 {hh:mm}
    0.9,                     !- Value Until Time 3
    17:00,                   !- Time 4 {hh:mm}
    1,                       !- Value Until Time 4
    18:00,                   !- Time 5 {hh:mm}
    0.8,                     !- Value Until Time 5
    20:00,                   !- Time 6 {hh:mm}
    0.3,                     !- Value Until Time 6
    21:00,                   !- Time 7 {hh:mm}
    0.1,                     !- Value Until Time 7
    24:00,                   !- Time 8 {hh:mm}
    0;                       !- Value Until Time 8

Schedule:Day:Interval,
    Scheduel_OFF,            !- Name
    Fractional,              !- Schedule Type Limits Name
    No,                      !- Interpolate to Timestep
    24:00,                   !- Time 1 {hh:mm}
    0;                       !- Value Until Time 1

Schedule:Day:Interval,
    Scheduel_ON,             !- Name
    Fractional,              !- Schedule Type Limits Name
    No,                      !- Interpolate to Timestep
    24:00,                   !- Time 1 {hh:mm}
    1;                       !- Value Until Time 1

Schedule:Day:Interval,
    Office Occ Holiday,      !- Name
    Fractional,              !- Schedule Type Limits Name
    No,                      !- Interpolate to Timestep
    24:00,                   !- Time 1 {hh:mm}
    0;                       !- Value Until Time 1

Schedule:Day:Interval,
    Infiltration_Old,        !- Name
    AnyNumber,               !- Schedule Type Limits Name
    No,                      !- Interpolate to Timestep
    07:00,                   !- Time 1 {hh:mm}
    0.2,                     !- Value Until Time 1
    08:00,                   !- Time 2 {hh:mm}
    0.7,                     !- Value Until Time 2
    17:00,                   !- Time 3 {hh:mm}
    1,                       !- Value Until Time 3
    20:00,                   !- Time 4 {hh:mm}
    0.7,                     !- Value Until Time 4
    24:00,                   !- Time 5 {hh:mm}
    0.2;                     !- Value Until Time 5

Schedule:Day:Interval,
    Office_Occ_206,          !- Name
    Fractional,              !- Schedule Type Limits Name
    No,                      !- Interpolate to Timestep
    07:00,                   !- Time 1 {hh:mm}
    0,                       !- Value Until Time 1
    08:00,                   !- Time 2 {hh:mm}
    0.2,                     !- Value Until Time 2
    09:00,                   !- Time 3 {hh:mm}
    0.6,                     !- Value Until Time 3
    17:00,                   !- Time 4 {hh:mm}
    1,                       !- Value Until Time 4
    18:00,                   !- Time 5 {hh:mm}
    0.6,                     !- Value Until Time 5
    20:00,                   !- Time 6 {hh:mm}
    0.5,                     !- Value Until Time 6
    21:00,                   !- Time 7 {hh:mm}
    0.2,                     !- Value Until Time 7
    24:00,                   !- Time 8 {hh:mm}
    0;                       !- Value Until Time 8

Schedule:Day:Interval,
    Office_Occ_216,          !- Name
    Fractional,              !- Schedule Type Limits Name
    No,                      !- Interpolate to Timestep
    07:00,                   !- Time 1 {hh:mm}
    0,                       !- Value Until Time 1
    08:00,                   !- Time 2 {hh:mm}
    0.2,                     !- Value Until Time 2
    09:00,                   !- Time 3 {hh:mm}
    0.6,                     !- Value Until Time 3
    17:00,                   !- Time 4 {hh:mm}
    1,                       !- Value Until Time 4
    18:00,                   !- Time 5 {hh:mm}
    0.6,                     !- Value Until Time 5
    20:00,                   !- Time 6 {hh:mm}
    0.5,                     !- Value Until Time 6
    21:00,                   !- Time 7 {hh:mm}
    0.2,                     !- Value Until Time 7
    24:00,                   !- Time 8 {hh:mm}
    0;                       !- Value Until Time 8

Schedule:Day:Interval,
    Office_Occ_222,          !- Name
    Fractional,              !- Schedule Type Limits Name
    No,                      !- Interpolate to Timestep
    07:00,                   !- Time 1 {hh:mm}
    0,                       !- Value Until Time 1
    08:00,                   !- Time 2 {hh:mm}
    0,                       !- Value Until Time 2
    09:00,                   !- Time 3 {hh:mm}
    1,                       !- Value Until Time 3
    17:00,                   !- Time 4 {hh:mm}
    1,                       !- Value Until Time 4
    18:00,                   !- Time 5 {hh:mm}
    1,                       !- Value Until Time 5
    20:00,                   !- Time 6 {hh:mm}
    0,                       !- Value Until Time 6
    21:00,                   !- Time 7 {hh:mm}
    0,                       !- Value Until Time 7
    24:00,                   !- Time 8 {hh:mm}
    0;                       !- Value Until Time 8

Schedule:Day:Interval,
    Office_Occ_225,          !- Name
    Fractional,              !- Schedule Type Limits Name
    No,                      !- Interpolate to Timestep
    07:00,                   !- Time 1 {hh:mm}
    0,                       !- Value Until Time 1
    08:00,                   !- Time 2 {hh:mm}
    0.2,                     !- Value Until Time 2
    09:00,                   !- Time 3 {hh:mm}
    0.6,                     !- Value Until Time 3
    17:00,                   !- Time 4 {hh:mm}
    1,                       !- Value Until Time 4
    18:00,                   !- Time 5 {hh:mm}
    0.6,                     !- Value Until Time 5
    20:00,                   !- Time 6 {hh:mm}
    0.5,                     !- Value Until Time 6
    21:00,                   !- Time 7 {hh:mm}
    0.2,                     !- Value Until Time 7
    24:00,                   !- Time 8 {hh:mm}
    0;                       !- Value Until Time 8


!-   ===========  ALL OBJECTS IN CLASS: SCHEDULE:WEEK:DAILY ===========

Schedule:Week:Daily,
    Office Occ Normal Week Rule - Jan1-Dec31,  !- Name
    Scheduel_OFF,            !- Sunday Schedule:Day Name
    Office Occ Normal_Weekdays,  !- Monday Schedule:Day Name
    Office Occ Normal_Weekdays,  !- Tuesday Schedule:Day Name
    Office Occ Normal_Weekdays,  !- Wednesday Schedule:Day Name
    Office Occ Normal_Weekdays,  !- Thursday Schedule:Day Name
    Office Occ Normal_Weekdays,  !- Friday Schedule:Day Name
    Scheduel_OFF,            !- Saturday Schedule:Day Name
    Office Occ Holiday,      !- Holiday Schedule:Day Name
    Office Occ Normal_Weekdays,  !- SummerDesignDay Schedule:Day Name
    Office Occ Normal_Weekdays,  !- WinterDesignDay Schedule:Day Name
    Scheduel_OFF,            !- CustomDay1 Schedule:Day Name
    Scheduel_OFF;            !- CustomDay2 Schedule:Day Name

Schedule:Week:Daily,
    Infiltration_Sched_Day,  !- Name
    Scheduel_OFF,            !- Sunday Schedule:Day Name
    Infiltration_Old,        !- Monday Schedule:Day Name
    Infiltration_Old,        !- Tuesday Schedule:Day Name
    Infiltration_Old,        !- Wednesday Schedule:Day Name
    Infiltration_Old,        !- Thursday Schedule:Day Name
    Infiltration_Old,        !- Friday Schedule:Day Name
    Scheduel_OFF,            !- Saturday Schedule:Day Name
    Scheduel_OFF,            !- Holiday Schedule:Day Name
    Infiltration_Old,        !- SummerDesignDay Schedule:Day Name
    Infiltration_Old,        !- WinterDesignDay Schedule:Day Name
    Scheduel_OFF,            !- CustomDay1 Schedule:Day Name
    Scheduel_OFF;            !- CustomDay2 Schedule:Day Name

Schedule:Week:Daily,
    Office_Occ_206_day,      !- Name
    Scheduel_OFF,            !- Sunday Schedule:Day Name
    Office_Occ_206,          !- Monday Schedule:Day Name
    Office_Occ_206,          !- Tuesday Schedule:Day Name
    Office_Occ_206,          !- Wednesday Schedule:Day Name
    Office_Occ_206,          !- Thursday Schedule:Day Name
    Office_Occ_206,          !- Friday Schedule:Day Name
    Scheduel_OFF,            !- Saturday Schedule:Day Name
    Office Occ Holiday,      !- Holiday Schedule:Day Name
    Office_Occ_206,          !- SummerDesignDay Schedule:Day Name
    Office_Occ_206,          !- WinterDesignDay Schedule:Day Name
    Scheduel_OFF,            !- CustomDay1 Schedule:Day Name
    Scheduel_OFF;            !- CustomDay2 Schedule:Day Name

Schedule:Week:Daily,
    Office_Occ_216_day,      !- Name
    Scheduel_OFF,            !- Sunday Schedule:Day Name
    Office_Occ_216,          !- Monday Schedule:Day Name
    Office_Occ_216,          !- Tuesday Schedule:Day Name
    Office_Occ_216,          !- Wednesday Schedule:Day Name
    Office_Occ_216,          !- Thursday Schedule:Day Name
    Office_Occ_216,          !- Friday Schedule:Day Name
    Scheduel_OFF,            !- Saturday Schedule:Day Name
    Office Occ Holiday,      !- Holiday Schedule:Day Name
    Office_Occ_216,          !- SummerDesignDay Schedule:Day Name
    Office_Occ_216,          !- WinterDesignDay Schedule:Day Name
    Scheduel_OFF,            !- CustomDay1 Schedule:Day Name
    Scheduel_OFF;            !- CustomDay2 Schedule:Day Name

Schedule:Week:Daily,
    Office_Occ_222_day,      !- Name
    Scheduel_OFF,            !- Sunday Schedule:Day Name
    Office_Occ_222,          !- Monday Schedule:Day Name
    Office_Occ_222,          !- Tuesday Schedule:Day Name
    Office_Occ_222,          !- Wednesday Schedule:Day Name
    Office_Occ_222,          !- Thursday Schedule:Day Name
    Office_Occ_222,          !- Friday Schedule:Day Name
    Scheduel_OFF,            !- Saturday Schedule:Day Name
    Office Occ Holiday,      !- Holiday Schedule:Day Name
    Office_Occ_222,          !- SummerDesignDay Schedule:Day Name
    Office_Occ_222,          !- WinterDesignDay Schedule:Day Name
    Scheduel_OFF,            !- CustomDay1 Schedule:Day Name
    Scheduel_OFF;            !- CustomDay2 Schedule:Day Name

Schedule:Week:Daily,
    Office_Occ_225_day,      !- Name
    Scheduel_OFF,            !- Sunday Schedule:Day Name
    Office_Occ_225,          !- Monday Schedule:Day Name
    Office_Occ_225,          !- Tuesday Schedule:Day Name
    Office_Occ_225,          !- Wednesday Schedule:Day Name
    Office_Occ_225,          !- Thursday Schedule:Day Name
    Office_Occ_225,          !- Friday Schedule:Day Name
    Scheduel_OFF,            !- Saturday Schedule:Day Name
    Office Occ Holiday,      !- Holiday Schedule:Day Name
    Office_Occ_225,          !- SummerDesignDay Schedule:Day Name
    Office_Occ_225,          !- WinterDesignDay Schedule:Day Name
    Scheduel_OFF,            !- CustomDay1 Schedule:Day Name
    Scheduel_OFF;            !- CustomDay2 Schedule:Day Name


!-   ===========  ALL OBJECTS IN CLASS: SCHEDULE:YEAR ===========

Schedule:Year,
    Office Occ Jan_Feb,      !- Name
    Fractional,              !- Schedule Type Limits Name
    Office Occ Normal Week Rule - Jan1-Dec31,  !- Schedule:Week Name 1
    1,                       !- Start Month 1
    1,                       !- Start Day 1
    12,                      !- End Month 1
    31;                      !- End Day 1

Schedule:Year,
    Infiltration_Sche_Year,  !- Name
    AnyNumber,               !- Schedule Type Limits Name
    Infiltration_Sched_Day,  !- Schedule:Week Name 1
    1,                       !- Start Month 1
    1,                       !- Start Day 1
    12,                      !- End Month 1
    31;                      !- End Day 1

Schedule:Year,
    Office_Occ_206_year,     !- Name
    Fractional,              !- Schedule Type Limits Name
    Office_Occ_206_day,      !- Schedule:Week Name 1
    1,                       !- Start Month 1
    1,                       !- Start Day 1
    12,                      !- End Month 1
    31;                      !- End Day 1

Schedule:Year,
    Office_Occ_216_year,     !- Name
    Fractional,              !- Schedule Type Limits Name
    Office_Occ_216_day,      !- Schedule:Week Name 1
    1,                       !- Start Month 1
    1,                       !- Start Day 1
    12,                      !- End Month 1
    31;                      !- End Day 1

Schedule:Year,
    Office_Occ_222_year,     !- Name
    Fractional,              !- Schedule Type Limits Name
    Office_Occ_222_day,      !- Schedule:Week Name 1
    1,                       !- Start Month 1
    1,                       !- Start Day 1
    12,                      !- End Month 1
    31;                      !- End Day 1

Schedule:Year,
    Office_Occ_225_year,     !- Name
    Fractional,              !- Schedule Type Limits Name
    Office_Occ_225_day,      !- Schedule:Week Name 1
    1,                       !- Start Month 1
    1,                       !- Start Day 1
    12,                      !- End Month 1
    31;                      !- End Day 1


!-   ===========  ALL OBJECTS IN CLASS: SCHEDULE:COMPACT ===========

Schedule:Compact,
    Heating_Schedule,        !- Name
    AnyNumber,               !- Schedule Type Limits Name
    Through: 4/15,           !- Field 1
    For: Weekdays,           !- Field 2
    Until: 7:00,             !- Field 3
    18,                      !- Field 4
    Until: 20:00,            !- Field 5
    23,                      !- Field 6
    Until: 24:00,            !- Field 7
    18,                      !- Field 8
    For: Weekends/Holidays,  !- Field 9
    Until: 24:00,            !- Field 10
    18,                      !- Field 11
    For: AllOtherDays,       !- Field 12
    Until: 24:00,            !- Field 13
    18,                      !- Field 14
    Through: 10/15,          !- Field 15
    For: AllDays,            !- Field 16
    Until: 24:00,            !- Field 17
    18,                      !- Field 18
    Through: 12/31,          !- Field 19
    For: Weekdays,           !- Field 20
    Until: 7:00,             !- Field 21
    18,                      !- Field 22
    Until: 20:00,            !- Field 23
    23,                      !- Field 24
    Until: 24:00,            !- Field 25
    18,                      !- Field 26
    For: Weekends/Holidays,  !- Field 27
    Until: 24:00,            !- Field 28
    18,                      !- Field 29
    For: AllOtherDays,       !- Field 30
    Until: 24:00,            !- Field 31
    18;                      !- Field 32

Schedule:Compact,
    Cooling_Schedule,        !- Name
    AnyNumber,               !- Schedule Type Limits Name
    Through: 4/15,           !- Field 1
    For: AllDays,            !- Field 2
    Until: 24:00,            !- Field 3
    30,                      !- Field 4
    Through: 10/15,          !- Field 5
    For: Weekdays,           !- Field 6
    Until: 7:00,             !- Field 7
    28,                      !- Field 8
    Until: 20:00,            !- Field 9
    25,                      !- Field 10
    Until: 24:00,            !- Field 11
    28,                      !- Field 12
    For: Weekends/Holidays,  !- Field 13
    Until: 24:00,            !- Field 14
    28,                      !- Field 15
    For: AllOtherDays,       !- Field 16
    Until: 24:00,            !- Field 17
    28,                      !- Field 18
    Through: 12/31,          !- Field 19
    For: AllDays,            !- Field 20
    Until: 24:00,            !- Field 21
    30,                      !- Field 22
    For: AllOtherDays,       !- Field 23
    Until: 24:00,            !- Field 24
    30;                      !- Field 25

Schedule:Compact,
    Heating_Schedule_Sud,    !- Name
    AnyNumber,               !- Schedule Type Limits Name
    Through: 4/15,           !- Field 1
    For: Weekdays,           !- Field 2
    Until: 6:00,             !- Field 3
    16,                      !- Field 4
    Until: 17:00,            !- Field 5
    23,                      !- Field 6
    Until: 24:00,            !- Field 7
    16,                      !- Field 8
    For: Weekends/Holidays,  !- Field 9
    Until: 24:00,            !- Field 10
    16,                      !- Field 11
    For: AllOtherDays,       !- Field 12
    Until: 24:00,            !- Field 13
    16,                      !- Field 14
    Through: 10/15,          !- Field 15
    For: AllDays,            !- Field 16
    Until: 24:00,            !- Field 17
    16,                      !- Field 18
    Through: 12/31,          !- Field 19
    For: Weekdays,           !- Field 20
    Until: 6:00,             !- Field 21
    16,                      !- Field 22
    Until: 17:00,            !- Field 23
    23,                      !- Field 24
    Until: 24:00,            !- Field 25
    16,                      !- Field 26
    For: Weekends/Holidays,  !- Field 27
    Until: 24:00,            !- Field 28
    16,                      !- Field 29
    For: AllOtherDays,       !- Field 30
    Until: 24:00,            !- Field 31
    16;                      !- Field 32

Schedule:Compact,
    Heating_Schedule_Nord,   !- Name
    AnyNumber,               !- Schedule Type Limits Name
    Through: 4/15,           !- Field 1
    For: Weekdays,           !- Field 2
    Until: 6:00,             !- Field 3
    18,                      !- Field 4
    Until: 19:00,            !- Field 5
    23,                      !- Field 6
    Until: 24:00,            !- Field 7
    18,                      !- Field 8
    For: Weekends/Holidays,  !- Field 9
    Until: 24:00,            !- Field 10
    18,                      !- Field 11
    For: AllOtherDays,       !- Field 12
    Until: 24:00,            !- Field 13
    18,                      !- Field 14
    Through: 10/15,          !- Field 15
    For: AllDays,            !- Field 16
    Until: 24:00,            !- Field 17
    18,                      !- Field 18
    Through: 12/31,          !- Field 19
    For: Weekdays,           !- Field 20
    Until: 6:00,             !- Field 21
    18,                      !- Field 22
    Until: 19:00,            !- Field 23
    23,                      !- Field 24
    Until: 24:00,            !- Field 25
    18,                      !- Field 26
    For: Weekends/Holidays,  !- Field 27
    Until: 24:00,            !- Field 28
    18,                      !- Field 29
    For: AllOtherDays,       !- Field 30
    Until: 24:00,            !- Field 31
    18;                      !- Field 32

Schedule:Compact,
    Heating_Schedule_East,   !- Name
    AnyNumber,               !- Schedule Type Limits Name
    Through: 4/15,           !- Field 1
    For: Weekdays,           !- Field 2
    Until: 6:00,             !- Field 3
    17,                      !- Field 4
    Until: 18:00,            !- Field 5
    23,                      !- Field 6
    Until: 24:00,            !- Field 7
    17,                      !- Field 8
    For: Weekends/Holidays,  !- Field 9
    Until: 24:00,            !- Field 10
    17,                      !- Field 11
    For: AllOtherDays,       !- Field 12
    Until: 24:00,            !- Field 13
    17,                      !- Field 14